85

Mg	-2.862000	16.807000	26.880000
C	-3.141000	14.732000	29.724000
C	-4.101000	19.388000	28.536000
C	-3.112000	18.417000	23.994000
C	-2.363000	13.776000	24.897000
N	-3.551000	16.983000	28.973000
C	-3.496000	16.065000	29.976000
C	-3.962000	16.724000	31.271000
C	-4.774000	17.988000	30.680000
C	-4.036000	18.185000	29.344000
C	-6.249000	17.756000	30.287000
C	-2.799000	16.873000	32.250000
C	-2.849000	18.091000	33.210000
C	-1.884000	18.041000	34.407000
O	-0.795000	18.640000	34.444000
O	-2.247000	17.155000	35.351000
N	-3.273000	18.764000	26.372000
C	-3.791000	19.723000	27.208000
C	-3.768000	21.036000	26.482000
C	-3.396000	20.698000	25.111000
C	-3.245000	19.199000	25.117000
C	-3.832000	22.349000	27.144000
C	-3.146000	21.659000	23.975000
O	-3.005000	21.230000	22.877000
C	-3.088000	23.101000	24.210000
N	-2.905000	16.171000	24.716000
C	-3.039000	17.066000	23.759000
C	-2.947000	16.455000	22.383000
C	-2.361000	15.048000	22.694000
C	-2.556000	15.031000	24.187000
C	-4.311000	16.383000	21.687000
C	-0.851000	14.958000	22.271000
C	0.085000	15.994000	22.923000
N	-2.691000	14.717000	27.206000
C	-2.506000	13.653000	26.341000
C	-2.466000	12.425000	27.096000
C	-2.618000	12.784000	28.455000
C	-2.778000	14.181000	28.443000
C	-2.422000	10.960000	26.560000
C	-2.760000	12.265000	29.881000
O	-2.614000	11.124000	30.380000
C	-3.231000	13.505000	30.749000
C	-2.451000	13.557000	31.969000
O	-1.259000	13.988000	32.051000
O	-3.116000	12.992000	32.998000
C	-2.531000	13.113000	34.313000
C	-1.347000	16.955000	36.489000
H	-1.641619	17.602734	37.315788
H	-4.539000	20.209000	29.107000
H	-3.088000	19.025000	23.087000
H	-2.262000	12.913000	24.236000
H	-4.697000	16.015000	31.652000
H	-4.858000	18.813000	31.387000
H	-6.669000	16.956000	30.896000
H	-6.487000	17.559000	29.242000
H	-6.898000	18.599000	30.525000
H	-1.815000	16.879000	31.781000
H	-2.893000	15.991000	32.883000
H	-3.888000	18.081000	33.539000
H	-2.590000	19.029000	32.718000
H	-3.987000	22.321000	28.222000
H	-4.580000	23.054000	26.782000
H	-2.870000	22.860000	27.103000
H	-3.909000	23.628000	24.696000
H	-3.037000	23.582000	23.234000
H	-2.147000	23.328000	24.710000
H	-2.144000	16.875000	21.776000
H	-2.887000	14.260000	22.154000
H	-5.156000	16.674000	22.311000
H	-4.622000	15.382000	21.387000
H	-4.325000	17.068000	20.839000
H	-0.722000	15.112000	21.200000
H	-0.509000	13.943000	22.473000
H	-0.477000	16.472000	23.726000
H	0.690000	16.695000	22.348000
H	0.797000	15.348000	23.437000
H	-2.030000	10.876000	25.547000
H	-3.410000	10.505000	26.636000
H	-1.721000	10.357000	27.137000
H	-4.284000	13.366000	30.992000
H	-1.526000	12.694000	34.262000
H	-2.935000	12.621000	35.198000
H	-2.493000	14.138000	34.681000
H	-0.315000	17.149000	36.200000
H	-1.584000	15.954000	36.852000
